407

C          0.00000        0.00000        0.00000
C          1.50750        0.00000        0.00000
O          1.94485       -1.34203        0.00000
C          3.35635       -1.34203        0.00000
C          3.83569       -2.77130        0.00000
O          5.24713       -2.75923        0.00000
C          5.69594       -4.09748        0.00000
C          7.20344       -4.09748        0.00000
O          7.64079       -5.43951        0.00000
C          9.05229       -5.43951        0.00000
C          9.53163       -6.86877        0.00000
O         10.94310       -6.85671        0.00000
C         11.39190       -8.19495        0.00000
C         12.89940       -8.19495        0.00000
O         13.33670       -9.53699        0.00000
C         14.74820       -9.53699        0.00000
C         15.22760      -10.96630        0.00000
O         16.63900      -10.95420        0.00000
C         17.08780      -12.29240        0.00000
C         18.59530      -12.29240        0.00000
O         19.03270      -13.63450        0.00000
C         20.44420      -13.63450        0.00000
C         20.92350      -15.06370        0.00000
O         22.33500      -15.05170        0.00000
C         22.78380      -16.38990        0.00000
C         24.29130      -16.38990        0.00000
O         24.72860      -17.73190        0.00000
C         26.14010      -17.73190        0.00000
C         26.61950      -19.16120        0.00000
O         28.03090      -19.14910        0.00000
C         28.47970      -20.48740        0.00000
C         29.98720      -20.48740        0.00000
O         30.42460      -21.82940        0.00000
C         31.83610      -21.82940        0.00000
C         32.31540      -23.25870        0.00000
O         33.72680      -23.24660        0.00000
C         34.17570      -24.58490        0.00000
C         35.68320      -24.58490        0.00000
O         36.12050      -25.92690        0.00000
C         37.53200      -25.92690        0.00000
C         38.01130      -27.35620        0.00000
O         39.42280      -27.34410        0.00000
C         39.87160      -28.68230        0.00000
C         41.37910      -28.68230        0.00000
O         41.81650      -30.02440        0.00000
C         43.22800      -30.02440        0.00000
C         43.70730      -31.45360        0.00000
O         45.11870      -31.44160        0.00000
C         45.56750      -32.77980        0.00000
C         47.07500      -32.77980        0.00000
O         47.51240      -34.12180        0.00000
C         48.92390      -34.12180        0.00000
C         49.40320      -35.55110        0.00000
O         50.81470      -35.53900        0.00000
C         51.26350      -36.87730        0.00000
C         52.77100      -36.87730        0.00000
O         53.20830      -38.21930        0.00000
C         54.61980      -38.21930        0.00000
C         55.09920      -39.64860        0.00000
O         56.51060      -39.63650        0.00000
C         56.95940      -40.97480        0.00000
C         58.46690      -40.97480        0.00000
O         58.90430      -42.31680        0.00000
C         60.31580      -42.31680        0.00000
C         60.79510      -43.74610        0.00000
O         62.20660      -43.73400        0.00000
C         62.65540      -45.07220        0.00000
C         64.16290      -45.07220        0.00000
O         64.60020      -46.41430        0.00000
C         66.01170      -46.41430        0.00000
C         66.49110      -47.84350        0.00000
O         67.90250      -47.83150        0.00000
C         68.35130      -49.16970        0.00000
C         69.85880      -49.16970        0.00000
O         70.29620      -50.51170        0.00000
C         71.70770      -50.51170        0.00000
C         72.18700      -51.94100        0.00000
O         73.59850      -51.92890        0.00000
C         74.04730      -53.26720        0.00000
C         75.55480      -53.26720        0.00000
O         75.99210      -54.60920        0.00000
C         77.40360      -54.60920        0.00000
C         77.88290      -56.03850        0.00000
O         79.29440      -56.02640        0.00000
C         79.74320      -57.36470        0.00000
C         81.25070      -57.36470        0.00000
O         81.68810      -58.70670        0.00000
C         83.09960      -58.70670        0.00000
C         83.57890      -60.13600        0.00000
O         84.99030      -60.12390        0.00000
C         85.43910      -61.46210        0.00000
C         86.94660      -61.46210        0.00000
O         87.38400      -62.80420        0.00000
C         88.79550      -62.80420        0.00000
C         89.27480      -64.23340        0.00000
O         90.68630      -64.22140        0.00000
C         91.13510      -65.55960        0.00000
C         92.64260      -65.55960        0.00000
O         93.07990      -66.90170        0.00000
C         94.49140      -66.90170        0.00000
C         94.97080      -68.33090        0.00000
O         96.38220      -68.31880        0.00000
C         96.83100      -69.65710        0.00000
C         98.33850      -69.65710        0.00000
O         98.77590      -70.99910        0.00000
C        100.18700      -70.99910        0.00000
C        100.66700      -72.42840        0.00000
O        102.07800      -72.41630        0.00000
C        102.52700      -73.75460        0.00000
C        104.03400      -73.75460        0.00000
O        104.47200      -75.09660        0.00000
C        105.88300      -75.09660        0.00000
C        106.36300      -76.52590        0.00000
O        107.77400      -76.51380        0.00000
C        108.22300      -77.85200        0.00000
C        109.73000      -77.85200        0.00000
O        110.16800      -79.19410        0.00000
C        111.57900      -79.19410        0.00000
C        112.05900      -80.62330        0.00000
O        113.47000      -80.61130        0.00000
C        113.91900      -81.94950        0.00000
C        115.42600      -81.94950        0.00000
O        115.86400      -83.29160        0.00000
C        117.27500      -83.29160        0.00000
C        117.75500      -84.72080        0.00000
O        119.16600      -84.70870        0.00000
C        119.61500      -86.04700        0.00000
C        121.12200      -86.04700        0.00000
O        121.56000      -87.38900        0.00000
C        122.97100      -87.38900        0.00000
C        123.45000      -88.81830        0.00000
O        124.86200      -88.80620        0.00000
C        125.31100      -90.14450        0.00000
C        126.81800      -90.14450        0.00000
O        127.25600      -91.48650        0.00000
C        128.66700      -91.48650        0.00000
C        129.14600      -92.91580        0.00000
O        130.55800      -92.90370        0.00000
C        131.00700      -94.24190        0.00000
C        132.51400      -94.24190        0.00000
O        132.95200      -95.58400        0.00000
C        134.36300      -95.58400        0.00000
C        134.84200      -97.01320        0.00000
O        136.25400      -97.00120        0.00000
C        136.70300      -98.33940        0.00000
C        138.21000      -98.33940        0.00000
O        138.64700      -99.68150        0.00000
C        140.05900      -99.68150        0.00000
C        140.53800     -101.11100        0.00000
O        141.95000     -101.09900        0.00000
C        142.39900     -102.43700        0.00000
C        143.90600     -102.43700        0.00000
O        144.34300     -103.77900        0.00000
C        145.75500     -103.77900        0.00000
C        146.23400     -105.20800        0.00000
O        147.64600     -105.19600        0.00000
C        148.09500     -106.53400        0.00000
C        149.60200     -106.53400        0.00000
O        150.03900     -107.87600        0.00000
C        151.45100     -107.87600        0.00000
C        151.93000     -109.30600        0.00000
O        153.34200     -109.29400        0.00000
C        153.79000     -110.63200        0.00000
C        155.29800     -110.63200        0.00000
O        155.73500     -111.97400        0.00000
C        157.14700     -111.97400        0.00000
C        157.62600     -113.40300        0.00000
O        159.03800     -113.39100        0.00000
C        159.48600     -114.72900        0.00000
C        160.99400     -114.72900        0.00000
O        161.43100     -116.07100        0.00000
C        162.84300     -116.07100        0.00000
C        163.32200     -117.50100        0.00000
H         -0.35666        1.00881        0.00000
H         -0.35667       -0.50440        0.87365
H         -0.35667       -0.50440       -0.87365
H          1.87039        0.49994        0.87365
H          1.87870        0.51138       -0.86348
H          3.71710       -0.84054        0.87365
H          3.72255       -0.83297       -0.86698
H          3.47708       -3.27433       -0.87365
H          3.46888       -3.28583        0.86348
H          5.33519       -4.59897       -0.87365
H          5.32974       -4.60654        0.86698
H          7.56633       -3.59754        0.87365
H          7.57464       -3.58610       -0.86348
H          9.41304       -4.93802        0.87365
H          9.41849       -4.93045       -0.86698
H          9.17302       -7.37180       -0.87365
H          9.16482       -7.38330        0.86349
H         11.03114       -8.69644       -0.87365
H         11.02569       -8.70401        0.86698
H         13.26230       -7.69502        0.87365
H         13.27062       -7.68356       -0.86347
H         15.10895       -9.03550        0.87365
H         15.11438       -9.02794       -0.86699
H         14.86901      -11.46934       -0.87365
H         14.86081      -11.48084        0.86349
H         16.72705      -12.79389       -0.87365
H         16.72160      -12.80146        0.86698
H         18.95819      -11.79246        0.87365
H         18.96649      -11.78103       -0.86349
H         20.80496      -13.13301       -0.87365
H         20.81041      -13.12543        0.86697
H         20.56488      -15.56672        0.87365
H         20.55669      -15.57820       -0.86350
H         22.42305      -16.89139       -0.87365
H         22.41760      -16.89896        0.86698
H         24.65420      -15.88996        0.87365
H         24.66251      -15.87851       -0.86347
H         26.50085      -17.23041        0.87365
H         26.50628      -17.22285       -0.86699
H         26.26091      -19.66424       -0.87365
H         26.25271      -19.67574        0.86349
H         28.11894      -20.98888       -0.87365
H         28.11349      -20.99647        0.86697
H         30.35008      -19.98745        0.87365
H         30.35837      -19.97603       -0.86350
H         32.19686      -21.32792        0.87365
H         32.20232      -21.32033       -0.86697
H         31.95679      -23.76172       -0.87365
H         31.94857      -23.77326        0.86346
H         33.81496      -25.08640       -0.87365
H         33.80953      -25.09395        0.86700
H         36.04610      -24.08496        0.87365
H         36.05441      -24.07351       -0.86347
H         37.89276      -25.42542        0.87365
H         37.89822      -25.41783       -0.86697
H         37.65269      -27.85922       -0.87365
H         37.64447      -27.87076        0.86346
H         39.51085      -29.18379       -0.87365
H         39.50540      -29.19136        0.86698
H         41.74199      -28.18236        0.87365
H         41.75029      -28.17093       -0.86349
H         43.58876      -29.52291        0.87365
H         43.59421      -29.51533       -0.86697
H         43.34868      -31.95662       -0.87365
H         43.34049      -31.96811        0.86350
H         45.20675      -33.28129       -0.87365
H         45.20130      -33.28886        0.86698
H         47.43788      -32.27985        0.87365
H         47.44617      -32.26843       -0.86350
H         49.28466      -33.62032        0.87365
H         49.29012      -33.61273       -0.86697
H         49.04459      -36.05412       -0.87365
H         49.03637      -36.06566        0.86346
H         50.90274      -37.37878       -0.87365
H         50.89729      -37.38637        0.86697
H         53.13390      -36.37736        0.87365
H         53.14221      -36.36591       -0.86347
H         54.98055      -37.71781        0.87365
H         54.98598      -37.71025       -0.86699
H         54.74061      -40.15164       -0.87365
H         54.73241      -40.16314        0.86349
H         56.59864      -41.47628       -0.87365
H         56.59319      -41.48387        0.86697
H         58.82978      -40.47485        0.87365
H         58.83807      -40.46343       -0.86350
H         60.67656      -41.81532        0.87365
H         60.68202      -41.80773       -0.86697
H         60.43649      -44.24912        0.87365
H         60.42827      -44.26066       -0.86346
H         62.29465      -45.57369       -0.87365
H         62.28920      -45.58126        0.86698
H         64.52581      -44.57227        0.87365
H         64.53413      -44.56081       -0.86346
H         66.37244      -45.91280        0.87365
H         66.37787      -45.90525       -0.86700
H         66.13249      -48.34653       -0.87365
H         66.12432      -48.35799        0.86353
H         67.99055      -49.67119       -0.87365
H         67.98510      -49.67876        0.86698
H         70.22168      -48.66975        0.87365
H         70.22997      -48.65833       -0.86350
H         72.06846      -50.01022        0.87365
H         72.07392      -50.00263       -0.86697
H         71.82839      -52.44402       -0.87365
H         71.82017      -52.45556        0.86346
H         73.68654      -53.76868       -0.87365
H         73.68109      -53.77627        0.86697
H         75.91770      -52.76726        0.87365
H         75.92601      -52.75581       -0.86347
H         77.76436      -54.10772        0.87365
H         77.76982      -54.10013       -0.86697
H         77.52429      -56.54152       -0.87365
H         77.51607      -56.55306        0.86346
H         79.38244      -57.86618       -0.87365
H         79.37699      -57.87377        0.86697
H         81.61358      -56.86475        0.87365
H         81.62187      -56.85333       -0.86350
H         83.46036      -58.20522       -0.87365
H         83.46582      -58.19763        0.86697
H         83.22029      -60.63902       -0.87365
H         83.21207      -60.65056        0.86346
H         85.07835      -61.96359       -0.87365
H         85.07290      -61.97116        0.86698
H         87.30949      -60.96216        0.87365
H         87.31779      -60.95073       -0.86349
H         89.15626      -62.30271        0.87365
H         89.16171      -62.29513       -0.86697
H         88.91618      -64.73642       -0.87365
H         88.90799      -64.74790        0.86350
H         90.77435      -66.06109       -0.87365
H         90.76890      -66.06866        0.86698
H         93.00551      -65.05967        0.87365
H         93.01383      -65.04821       -0.86346
H         94.85214      -66.40020        0.87365
H         94.85757      -66.39265       -0.86700
H         94.61221      -68.83394       -0.87365
H         94.60402      -68.84543        0.86350
H         96.47024      -70.15858       -0.87365
H         96.46479      -70.16617        0.86697
H         98.70138      -69.15715        0.87365
H         98.70967      -69.14573       -0.86350
H        100.54765      -70.49754        0.87365
H        100.55296      -70.49015       -0.86715
H        100.30850      -72.93150       -0.87365
H        100.30043      -72.94284        0.86364
H        102.16628      -74.25611        0.87365
H        102.16086      -74.26363       -0.86703
H        104.39678      -73.25458       -0.87365
H        104.40494      -73.24334        0.86367
H        106.24365      -74.59504        0.87365
H        106.24896      -74.58765       -0.86715
H        106.00450      -77.02900       -0.87365
H        105.99643      -77.04034        0.86364
H        107.86228      -78.35351       -0.87365
H        107.85688      -78.36102        0.86703
H        110.09279      -77.35198        0.87365
H        110.10095      -77.34073       -0.86366
H        111.93965      -78.69253        0.87365
H        111.94495      -78.68516       -0.86715
H        111.70049      -81.12639       -0.87365
H        111.69244      -81.13769        0.86368
H        113.55828      -82.45101       -0.87365
H        113.55288      -82.45852        0.86703
H        115.78879      -81.44948        0.87365
H        115.79695      -81.43823       -0.86366
H        117.63565      -82.79003        0.87365
H        117.64095      -82.78266       -0.86715
H        117.39651      -85.22391       -0.87365
H        117.38844      -85.23523        0.86365
H        119.25428      -86.54851       -0.87365
H        119.24886      -86.55603        0.86703
H        121.48478      -85.54698        0.87365
H        121.49294      -85.53574       -0.86367
H        123.33181      -86.88755        0.87365
H        123.33733      -86.87988       -0.86689
H        123.09134      -89.32129       -0.87365
H        123.08306      -89.33290        0.86339
H        124.95028      -90.64601       -0.87365
H        124.94486      -90.65353        0.86703
H        127.18078      -89.64448        0.87365
H        127.18894      -89.63324       -0.86367
H        129.02781      -90.98505        0.87365
H        129.03333      -90.97738       -0.86689
H        128.78734      -93.41879       -0.87365
H        128.77906      -93.43040        0.86339
H        130.64628      -94.74341       -0.87365
H        130.64088      -94.75092        0.86703
H        132.87679      -93.74188        0.87365
H        132.88495      -93.73063       -0.86366
H        134.72380      -95.08255        0.87365
H        134.72932      -95.07488       -0.86690
H        134.48333      -97.51618       -0.87365
H        134.47508      -97.52775        0.86342
H        136.34228      -98.84091       -0.87365
H        136.33688      -98.84842        0.86703
H        138.57296      -97.83950        0.87365
H        138.58134      -97.82795       -0.86338
H        140.41982      -99.18006        0.87365
H        140.42536      -99.17237       -0.86687
H        140.17931     -101.61397       -0.87365
H        140.17104     -101.62557        0.86340
H        142.03829     -102.93852       -0.87365
H        142.03290     -102.94601        0.86705
H        144.26895     -101.93710       -0.87365
H        144.27733     -101.92556        0.86339
H        146.11579     -103.27754        0.87365
H        146.12129     -103.26989       -0.86691
H        145.87534     -105.71099       -0.87365
H        145.86710     -105.72254        0.86344
H        147.73429     -107.03552       -0.87365
H        147.72890     -107.04301        0.86705
H        149.96495     -106.03410        0.87365
H        149.97333     -106.02256       -0.86339
H        151.81185     -107.37458        0.87365
H        151.81742     -107.36684       -0.86683
H        151.57129     -109.80895       -0.87365
H        151.56298     -109.82060        0.86336
H        153.42912     -111.13340       -0.87365
H        153.42351     -111.14120        0.86678
H        155.66095     -110.13210        0.87365
H        155.66933     -110.12056       -0.86339
H        157.50779     -111.47254        0.87365
H        157.51329     -111.46489       -0.86691
H        157.26734     -113.90599       -0.87365
H        157.25910     -113.91754        0.86344
H        159.12512     -115.23040       -0.87365
H        159.11951     -115.23820        0.86678
H        161.35695     -114.22910        0.87365
H        161.36533     -114.21756       -0.86339
H        163.20385     -115.56958        0.87365
H        163.20942     -115.56184       -0.86683
H        162.95080     -118.00148        0.86985
H        164.39183     -117.51879        0.00756
H        162.96323     -117.99732       -0.87741
