7

C          1.20727       -0.23993       -0.00199
C         -0.06646        0.59863       -0.06344
O         -1.28021       -0.21194        0.09946
H          2.09549        0.40286       -0.05253
H          1.24540       -0.81052        0.93192
H         -0.12129        1.16554       -1.00348
H         -0.11388        1.30732        0.76599
